!- Windows Line endings 

Version,
    23.1;                     !- Version Identifier

SimulationControl,
    Yes,                      !- Do Zone Sizing Calculation
    Yes,                      !- Do System Sizing Calculation
    Yes,                      !- Do Plant Sizing Calculation
    No,                       !- Run Simulation for Sizing Periods
    Yes,                      !- Run Simulation for Weather File Run Periods
    No,                       !- Do HVAC Sizing Simulation for Sizing Periods
    ;                         !- Maximum Number of HVAC Sizing Simulation Passes

Building,
    building,                 !- Name
    0,                        !- North Axis
    City,                     !- Terrain
    ,                         !- Loads Convergence Tolerance Value
    ,                         !- Temperature Convergence Tolerance Value
    FullExteriorWithReflections,    !- Solar Distribution
    ,                         !- Maximum Number of Warmup Days
    ;                         !- Minimum Number of Warmup Days

ShadowCalculation,
    PolygonClipping,          !- Shading Calculation Method
    Periodic,                 !- Shading Calculation Update Frequency Method
    30,                       !- Shading Calculation Update Frequency
    15000,                    !- Maximum Figures in Shadow Overlap Calculations
    SutherlandHodgman,        !- Polygon Clipping Algorithm
    512,                      !- Pixel Counting Resolution
    SimpleSkyDiffuseModeling,    !- Sky Diffuse Modeling Algorithm
    No,                       !- Output External Shading Calculation Results
    No,                       !- Disable SelfShading Within Shading Zone Groups
    No;                       !- Disable SelfShading From Shading Zone Groups to Other Zones

HeatBalanceAlgorithm,
    ConductionTransferFunction,    !- Algorithm
    200;                      !- Surface Temperature Upper Limit

Timestep,
    6;                        !- Number of Timesteps per Hour

Site:Location,
    Site 1,                   !- Name
    0,                        !- Latitude
    0,                        !- Longitude
    0,                        !- Time Zone
    0;                        !- Elevation

SizingPeriod:DesignDay,
    NAPLES Cooling Design Day 0.4% Condns DB=>MWB,    !- Name
    8,                        !- Month
    21,                       !- Day of Month
    SummerDesignDay,          !- Day Type
    34.5976,                  !- Maximum DryBulb Temperature
    8.4,                      !- Daily DryBulb Temperature Range
    DefaultMultipliers,       !- DryBulb Temperature Range Modifier Type
    ,                         !- DryBulb Temperature Range Modifier Day Schedule Name
    Wetbulb,                  !- Humidity Condition Type
    20.6,                     !- Wetbulb or DewPoint at Maximum DryBulb
    ,                         !- Humidity Condition Day Schedule Name
    ,                         !- Humidity Ratio at Maximum DryBulb
    ,                         !- Enthalpy at Maximum DryBulb
    ,                         !- Daily WetBulb Temperature Range
    101616,                   !- Barometric Pressure
    2.8,                      !- Wind Speed
    227,                      !- Wind Direction
    No,                       !- Rain Indicator
    No,                       !- Snow Indicator
    No,                       !- Daylight Saving Time Indicator
    ASHRAEClearSky,           !- Solar Model Indicator
    ,                         !- Beam Solar Day Schedule Name
    ,                         !- Diffuse Solar Day Schedule Name
    ,                         !- ASHRAE Clear Sky Optical Depth for Beam Irradiance taub
    ,                         !- ASHRAE Clear Sky Optical Depth for Diffuse Irradiance taud
    1,                        !- Sky Clearness
    ,                         !- Maximum Number Warmup Days
    FullResetAtBeginEnvironment;    !- Begin Environment Reset Mode

SizingPeriod:DesignDay,
    NAPLES Heating Design Day 99.6% Condns DB,    !- Name
    1,                        !- Month
    21,                       !- Day of Month
    WinterDesignDay,          !- Day Type
    1,                        !- Maximum DryBulb Temperature
    0,                        !- Daily DryBulb Temperature Range
    DefaultMultipliers,       !- DryBulb Temperature Range Modifier Type
    ,                         !- DryBulb Temperature Range Modifier Day Schedule Name
    Wetbulb,                  !- Humidity Condition Type
    1,                        !- Wetbulb or DewPoint at Maximum DryBulb
    ,                         !- Humidity Condition Day Schedule Name
    ,                         !- Humidity Ratio at Maximum DryBulb
    ,                         !- Enthalpy at Maximum DryBulb
    ,                         !- Daily WetBulb Temperature Range
    101616,                   !- Barometric Pressure
    1.8,                      !- Wind Speed
    354,                      !- Wind Direction
    No,                       !- Rain Indicator
    No,                       !- Snow Indicator
    No,                       !- Daylight Saving Time Indicator
    ASHRAEClearSky,           !- Solar Model Indicator
    ,                         !- Beam Solar Day Schedule Name
    ,                         !- Diffuse Solar Day Schedule Name
    ,                         !- ASHRAE Clear Sky Optical Depth for Beam Irradiance taub
    ,                         !- ASHRAE Clear Sky Optical Depth for Diffuse Irradiance taud
    0,                        !- Sky Clearness
    ,                         !- Maximum Number Warmup Days
    FullResetAtBeginEnvironment;    !- Begin Environment Reset Mode

RunPeriod,
    Run Period 1,             !- Name
    1,                        !- Begin Month
    1,                        !- Begin Day of Month
    2006,                     !- Begin Year
    12,                       !- End Month
    31,                       !- End Day of Month
    2006,                     !- End Year
    Sunday,                   !- Day of Week for Start Day
    No,                       !- Use Weather File Holidays and Special Days
    No,                       !- Use Weather File Daylight Saving Period
    No,                       !- Apply Weekend Holiday Rule
    Yes,                      !- Use Weather File Rain Indicators
    Yes;                      !- Use Weather File Snow Indicators

Site:WaterMainsTemperature,
    CorrelationFromWeatherFile;    !- Calculation Method

ScheduleTypeLimits,
    Fractional,               !- Name
    0,                        !- Lower Limit Value
    1,                        !- Upper Limit Value
    Continuous,               !- Numeric Type
    dimensionless;            !- Unit Type

ScheduleTypeLimits,
    Activity Level,           !- Name
    0,                        !- Lower Limit Value
    ,                         !- Upper Limit Value
    Continuous,               !- Numeric Type
    activitylevel;            !- Unit Type

ScheduleTypeLimits,
    OnOff,                    !- Name
    0,                        !- Lower Limit Value
    1,                        !- Upper Limit Value
    Discrete,                 !- Numeric Type
    availability;             !- Unit Type

ScheduleTypeLimits,
    Temperature,              !- Name
    -273.15,                  !- Lower Limit Value
    ,                         !- Upper Limit Value
    Continuous,               !- Numeric Type
    temperature;              !- Unit Type

ScheduleTypeLimits,
    Temperature 1,            !- Name
    ,                         !- Lower Limit Value
    ,                         !- Upper Limit Value
    Continuous,               !- Numeric Type
    temperature;              !- Unit Type

Schedule:Day:Interval,
    MediumOffice Building_Lighting Schedule_Sunday,    !- Name
    Fractional,               !- Schedule Type Limits Name
    No,                       !- Interpolate to Timestep
    06:00,                    !- Time 1
    0.05,                     !- Value Until Time 1
    18:00,                    !- Time 2
    0.04311628,               !- Value Until Time 2
    24:00,                    !- Time 3
    0.05;                     !- Value Until Time 3

Schedule:Day:Interval,
    Schedule Day 11,          !- Name
    Fractional,               !- Schedule Type Limits Name
    No,                       !- Interpolate to Timestep
    05:00,                    !- Time 1
    0.05,                     !- Value Until Time 1
    06:00,                    !- Time 2
    0.1,                      !- Value Until Time 2
    07:00,                    !- Time 3
    0.08623256,               !- Value Until Time 3
    08:00,                    !- Time 4
    0.25869768,               !- Value Until Time 4
    17:00,                    !- Time 5
    0.77609304,               !- Value Until Time 5
    18:00,                    !- Time 6
    0.4311628,                !- Value Until Time 6
    20:00,                    !- Time 7
    0.25869768,               !- Value Until Time 7
    22:00,                    !- Time 8
    0.17246512,               !- Value Until Time 8
    23:00,                    !- Time 9
    0.08623256,               !- Value Until Time 9
    24:00,                    !- Time 10
    0.04311628;               !- Value Until Time 10

Schedule:Day:Interval,
    Schedule Day 12,          !- Name
    Fractional,               !- Schedule Type Limits Name
    No,                       !- Interpolate to Timestep
    06:00,                    !- Time 1
    0.05,                     !- Value Until Time 1
    08:00,                    !- Time 2
    0.08623256,               !- Value Until Time 2
    12:00,                    !- Time 3
    0.25869768,               !- Value Until Time 3
    17:00,                    !- Time 4
    0.12934884,               !- Value Until Time 4
    19:00,                    !- Time 5
    0.04311628,               !- Value Until Time 5
    24:00,                    !- Time 6
    0.05;                     !- Value Until Time 6

Schedule:Day:Interval,
    MediumOffice Building_Lighting Schedule_SmrDsn 1,    !- Name
    Fractional,               !- Schedule Type Limits Name
    No,                       !- Interpolate to Timestep
    24:00,                    !- Time 1
    1;                        !- Value Until Time 1

Schedule:Day:Interval,
    MediumOffice Building_Lighting Schedule_WntrDsn 1,    !- Name
    Fractional,               !- Schedule Type Limits Name
    No,                       !- Interpolate to Timestep
    24:00,                    !- Time 1
    0;                        !- Value Until Time 1

Schedule:Day:Interval,
    MediumOffice Building_Lighting Schedule_Hol 1,    !- Name
    Fractional,               !- Schedule Type Limits Name
    No,                       !- Interpolate to Timestep
    06:00,                    !- Time 1
    0.05,                     !- Value Until Time 1
    08:00,                    !- Time 2
    0.08623256,               !- Value Until Time 2
    12:00,                    !- Time 3
    0.25869768,               !- Value Until Time 3
    17:00,                    !- Time 4
    0.12934884,               !- Value Until Time 4
    19:00,                    !- Time 5
    0.04311628,               !- Value Until Time 5
    24:00,                    !- Time 6
    0.05;                     !- Value Until Time 6

Schedule:Day:Interval,
    MediumOffice Building_People_Occ Schedule_Sunday,    !- Name
    Fractional,               !- Schedule Type Limits Name
    No,                       !- Interpolate to Timestep
    06:00,                    !- Time 1
    0,                        !- Value Until Time 1
    18:00,                    !- Time 2
    0.05,                     !- Value Until Time 2
    24:00,                    !- Time 3
    0;                        !- Value Until Time 3

Schedule:Day:Interval,
    Schedule Day 3,           !- Name
    Fractional,               !- Schedule Type Limits Name
    No,                       !- Interpolate to Timestep
    06:00,                    !- Time 1
    0,                        !- Value Until Time 1
    07:00,                    !- Time 2
    0.1,                      !- Value Until Time 2
    08:00,                    !- Time 3
    0.2,                      !- Value Until Time 3
    12:00,                    !- Time 4
    0.95,                     !- Value Until Time 4
    13:00,                    !- Time 5
    0.5,                      !- Value Until Time 5
    17:00,                    !- Time 6
    0.95,                     !- Value Until Time 6
    18:00,                    !- Time 7
    0.3,                      !- Value Until Time 7
    22:00,                    !- Time 8
    0.1,                      !- Value Until Time 8
    24:00,                    !- Time 9
    0.05;                     !- Value Until Time 9

Schedule:Day:Interval,
    Schedule Day 4,           !- Name
    Fractional,               !- Schedule Type Limits Name
    No,                       !- Interpolate to Timestep
    06:00,                    !- Time 1
    0,                        !- Value Until Time 1
    08:00,                    !- Time 2
    0.1,                      !- Value Until Time 2
    12:00,                    !- Time 3
    0.3,                      !- Value Until Time 3
    17:00,                    !- Time 4
    0.1,                      !- Value Until Time 4
    19:00,                    !- Time 5
    0.05,                     !- Value Until Time 5
    24:00,                    !- Time 6
    0;                        !- Value Until Time 6

Schedule:Day:Interval,
    MediumOffice Building_People_Occ Schedule_SmrDsn 1,    !- Name
    Fractional,               !- Schedule Type Limits Name
    No,                       !- Interpolate to Timestep
    06:00,                    !- Time 1
    0,                        !- Value Until Time 1
    22:00,                    !- Time 2
    1,                        !- Value Until Time 2
    24:00,                    !- Time 3
    0.05;                     !- Value Until Time 3

Schedule:Day:Interval,
    MediumOffice Building_People_Occ Schedule_WntrDsn 1,    !- Name
    Fractional,               !- Schedule Type Limits Name
    No,                       !- Interpolate to Timestep
    24:00,                    !- Time 1
    0;                        !- Value Until Time 1

Schedule:Day:Interval,
    MediumOffice Building_People_Occ Schedule_Hol 1,    !- Name
    Fractional,               !- Schedule Type Limits Name
    No,                       !- Interpolate to Timestep
    06:00,                    !- Time 1
    0,                        !- Value Until Time 1
    18:00,                    !- Time 2
    0.05,                     !- Value Until Time 2
    24:00,                    !- Time 3
    0;                        !- Value Until Time 3

Schedule:Day:Interval,
    MediumOffice Building_People_Act Schedule_Sunday,    !- Name
    Activity Level,           !- Schedule Type Limits Name
    No,                       !- Interpolate to Timestep
    24:00,                    !- Time 1
    120;                      !- Value Until Time 1

Schedule:Day:Interval,
    MediumOffice Building_People_Act Schedule_SmrDsn 1,    !- Name
    Activity Level,           !- Schedule Type Limits Name
    No,                       !- Interpolate to Timestep
    24:00,                    !- Time 1
    120;                      !- Value Until Time 1

Schedule:Day:Interval,
    MediumOffice Building_People_Act Schedule_WntrDsn 1,    !- Name
    Activity Level,           !- Schedule Type Limits Name
    No,                       !- Interpolate to Timestep
    24:00,                    !- Time 1
    120;                      !- Value Until Time 1

Schedule:Day:Interval,
    MediumOffice Building_People_Act Schedule_Hol 1,    !- Name
    Activity Level,           !- Schedule Type Limits Name
    No,                       !- Interpolate to Timestep
    24:00,                    !- Time 1
    120;                      !- Value Until Time 1

Schedule:Day:Interval,
    MediumOffice Building_Electric Equipment Schedule_Sunday,    !- Name
    Fractional,               !- Schedule Type Limits Name
    No,                       !- Interpolate to Timestep
    06:00,                    !- Time 1
    0.2307553806,             !- Value Until Time 1
    18:00,                    !- Time 2
    0.288107175,              !- Value Until Time 2
    24:00,                    !- Time 3
    0.2307553806;             !- Value Until Time 3

Schedule:Day:Interval,
    Schedule Day 1,           !- Name
    Fractional,               !- Schedule Type Limits Name
    No,                       !- Interpolate to Timestep
    06:00,                    !- Time 1
    0.3076738408,             !- Value Until Time 1
    08:00,                    !- Time 2
    0.381234796,              !- Value Until Time 2
    12:00,                    !- Time 3
    0.857778291,              !- Value Until Time 3
    13:00,                    !- Time 4
    0.762469592,              !- Value Until Time 4
    17:00,                    !- Time 5
    0.857778291,              !- Value Until Time 5
    18:00,                    !- Time 6
    0.476543495,              !- Value Until Time 6
    24:00,                    !- Time 7
    0.381234796;              !- Value Until Time 7

Schedule:Day:Interval,
    Schedule Day 2,           !- Name
    Fractional,               !- Schedule Type Limits Name
    No,                       !- Interpolate to Timestep
    06:00,                    !- Time 1
    0.2307553806,             !- Value Until Time 1
    08:00,                    !- Time 2
    0.381234796,              !- Value Until Time 2
    12:00,                    !- Time 3
    0.476543495,              !- Value Until Time 3
    17:00,                    !- Time 4
    0.3335804465,             !- Value Until Time 4
    19:00,                    !- Time 5
    0.285926097,              !- Value Until Time 5
    24:00,                    !- Time 6
    0.2307553806;             !- Value Until Time 6

Schedule:Day:Interval,
    MediumOffice Building_Electric Equipment Schedule_SmrDsn 1,    !- Name
    Fractional,               !- Schedule Type Limits Name
    No,                       !- Interpolate to Timestep
    24:00,                    !- Time 1
    1;                        !- Value Until Time 1

Schedule:Day:Interval,
    MediumOffice Building_Electric Equipment Schedule_WntrDsn 1,    !- Name
    Fractional,               !- Schedule Type Limits Name
    No,                       !- Interpolate to Timestep
    24:00,                    !- Time 1
    0;                        !- Value Until Time 1

Schedule:Day:Interval,
    MediumOffice Building_Electric Equipment Schedule_Hol 1,    !- Name
    Fractional,               !- Schedule Type Limits Name
    No,                       !- Interpolate to Timestep
    06:00,                    !- Time 1
    0.2307553806,             !- Value Until Time 1
    08:00,                    !- Time 2
    0.381234796,              !- Value Until Time 2
    12:00,                    !- Time 3
    0.476543495,              !- Value Until Time 3
    17:00,                    !- Time 4
    0.3335804465,             !- Value Until Time 4
    19:00,                    !- Time 5
    0.285926097,              !- Value Until Time 5
    24:00,                    !- Time 6
    0.2307553806;             !- Value Until Time 6

Schedule:Day:Interval,
    Always On_Day Schedule,    !- Name
    Fractional,               !- Schedule Type Limits Name
    No,                       !- Interpolate to Timestep
    24:00,                    !- Time 1
    1;                        !- Value Until Time 1

Schedule:Day:Interval,
    MediumOffice Building_Electric Equipment Schedule_Hol,    !- Name
    Fractional,               !- Schedule Type Limits Name
    No,                       !- Interpolate to Timestep
    06:00,                    !- Time 1
    0.2307553806,             !- Value Until Time 1
    08:00,                    !- Time 2
    0.381234796,              !- Value Until Time 2
    12:00,                    !- Time 3
    0.476543495,              !- Value Until Time 3
    17:00,                    !- Time 4
    0.3335804465,             !- Value Until Time 4
    19:00,                    !- Time 5
    0.285926097,              !- Value Until Time 5
    24:00,                    !- Time 6
    0.2307553806;             !- Value Until Time 6

Schedule:Day:Interval,
    MediumOffice Building_Electric Equipment Schedule_Monday,    !- Name
    Fractional,               !- Schedule Type Limits Name
    No,                       !- Interpolate to Timestep
    06:00,                    !- Time 1
    0.3076738408,             !- Value Until Time 1
    08:00,                    !- Time 2
    0.381234796,              !- Value Until Time 2
    12:00,                    !- Time 3
    0.857778291,              !- Value Until Time 3
    13:00,                    !- Time 4
    0.762469592,              !- Value Until Time 4
    17:00,                    !- Time 5
    0.857778291,              !- Value Until Time 5
    18:00,                    !- Time 6
    0.476543495,              !- Value Until Time 6
    24:00,                    !- Time 7
    0.381234796;              !- Value Until Time 7

Schedule:Day:Interval,
    MediumOffice Building_Electric Equipment Schedule_Saturday,    !- Name
    Fractional,               !- Schedule Type Limits Name
    No,                       !- Interpolate to Timestep
    06:00,                    !- Time 1
    0.2307553806,             !- Value Until Time 1
    08:00,                    !- Time 2
    0.381234796,              !- Value Until Time 2
    12:00,                    !- Time 3
    0.476543495,              !- Value Until Time 3
    17:00,                    !- Time 4
    0.3335804465,             !- Value Until Time 4
    19:00,                    !- Time 5
    0.285926097,              !- Value Until Time 5
    24:00,                    !- Time 6
    0.2307553806;             !- Value Until Time 6

Schedule:Day:Interval,
    MediumOffice Building_Electric Equipment Schedule_SmrDsn,    !- Name
    Fractional,               !- Schedule Type Limits Name
    No,                       !- Interpolate to Timestep
    24:00,                    !- Time 1
    1;                        !- Value Until Time 1

Schedule:Day:Interval,
    MediumOffice Building_Electric Equipment Schedule_WntrDsn,    !- Name
    Fractional,               !- Schedule Type Limits Name
    No,                       !- Interpolate to Timestep
    24:00,                    !- Time 1
    0;                        !- Value Until Time 1

Schedule:Day:Interval,
    MediumOffice Building_Infiltration Schedule_Hol,    !- Name
    Fractional,               !- Schedule Type Limits Name
    No,                       !- Interpolate to Timestep
    24:00,                    !- Time 1
    1;                        !- Value Until Time 1

Schedule:Day:Interval,
    MediumOffice Building_Infiltration Schedule_Hol 1,    !- Name
    Fractional,               !- Schedule Type Limits Name
    No,                       !- Interpolate to Timestep
    24:00,                    !- Time 1
    1;                        !- Value Until Time 1

Schedule:Day:Interval,
    MediumOffice Building_Infiltration Schedule_Monday,    !- Name
    Fractional,               !- Schedule Type Limits Name
    No,                       !- Interpolate to Timestep
    06:00,                    !- Time 1
    1,                        !- Value Until Time 1
    22:00,                    !- Time 2
    0.25,                     !- Value Until Time 2
    24:00,                    !- Time 3
    1;                        !- Value Until Time 3

Schedule:Day:Interval,
    MediumOffice Building_Infiltration Schedule_Saturday,    !- Name
    Fractional,               !- Schedule Type Limits Name
    No,                       !- Interpolate to Timestep
    06:00,                    !- Time 1
    1,                        !- Value Until Time 1
    18:00,                    !- Time 2
    0.25,                     !- Value Until Time 2
    24:00,                    !- Time 3
    1;                        !- Value Until Time 3

Schedule:Day:Interval,
    MediumOffice Building_Infiltration Schedule_SmrDsn,    !- Name
    Fractional,               !- Schedule Type Limits Name
    No,                       !- Interpolate to Timestep
    06:00,                    !- Time 1
    1,                        !- Value Until Time 1
    22:00,                    !- Time 2
    0.25,                     !- Value Until Time 2
    24:00,                    !- Time 3
    1;                        !- Value Until Time 3

Schedule:Day:Interval,
    MediumOffice Building_Infiltration Schedule_SmrDsn 1,    !- Name
    Fractional,               !- Schedule Type Limits Name
    No,                       !- Interpolate to Timestep
    06:00,                    !- Time 1
    1,                        !- Value Until Time 1
    22:00,                    !- Time 2
    0.25,                     !- Value Until Time 2
    24:00,                    !- Time 3
    1;                        !- Value Until Time 3

Schedule:Day:Interval,
    MediumOffice Building_Infiltration Schedule_Sunday,    !- Name
    Fractional,               !- Schedule Type Limits Name
    No,                       !- Interpolate to Timestep
    24:00,                    !- Time 1
    1;                        !- Value Until Time 1

Schedule:Day:Interval,
    MediumOffice Building_Infiltration Schedule_WntrDsn,    !- Name
    Fractional,               !- Schedule Type Limits Name
    No,                       !- Interpolate to Timestep
    06:00,                    !- Time 1
    1,                        !- Value Until Time 1
    18:00,                    !- Time 2
    0.25,                     !- Value Until Time 2
    24:00,                    !- Time 3
    1;                        !- Value Until Time 3

Schedule:Day:Interval,
    MediumOffice Building_Infiltration Schedule_WntrDsn 1,    !- Name
    Fractional,               !- Schedule Type Limits Name
    No,                       !- Interpolate to Timestep
    06:00,                    !- Time 1
    1,                        !- Value Until Time 1
    18:00,                    !- Time 2
    0.25,                     !- Value Until Time 2
    24:00,                    !- Time 3
    1;                        !- Value Until Time 3

Schedule:Day:Interval,
    MediumOffice Building_Lighting Schedule_Hol,    !- Name
    Fractional,               !- Schedule Type Limits Name
    No,                       !- Interpolate to Timestep
    06:00,                    !- Time 1
    0.05,                     !- Value Until Time 1
    08:00,                    !- Time 2
    0.08623256,               !- Value Until Time 2
    12:00,                    !- Time 3
    0.25869768,               !- Value Until Time 3
    17:00,                    !- Time 4
    0.12934884,               !- Value Until Time 4
    19:00,                    !- Time 5
    0.04311628,               !- Value Until Time 5
    24:00,                    !- Time 6
    0.05;                     !- Value Until Time 6

Schedule:Day:Interval,
    MediumOffice Building_Lighting Schedule_Monday,    !- Name
    Fractional,               !- Schedule Type Limits Name
    No,                       !- Interpolate to Timestep
    05:00,                    !- Time 1
    0.05,                     !- Value Until Time 1
    06:00,                    !- Time 2
    0.1,                      !- Value Until Time 2
    07:00,                    !- Time 3
    0.08623256,               !- Value Until Time 3
    08:00,                    !- Time 4
    0.25869768,               !- Value Until Time 4
    17:00,                    !- Time 5
    0.77609304,               !- Value Until Time 5
    18:00,                    !- Time 6
    0.4311628,                !- Value Until Time 6
    20:00,                    !- Time 7
    0.25869768,               !- Value Until Time 7
    22:00,                    !- Time 8
    0.17246512,               !- Value Until Time 8
    23:00,                    !- Time 9
    0.08623256,               !- Value Until Time 9
    24:00,                    !- Time 10
    0.04311628;               !- Value Until Time 10

Schedule:Day:Interval,
    MediumOffice Building_Lighting Schedule_Saturday,    !- Name
    Fractional,               !- Schedule Type Limits Name
    No,                       !- Interpolate to Timestep
    06:00,                    !- Time 1
    0.05,                     !- Value Until Time 1
    08:00,                    !- Time 2
    0.08623256,               !- Value Until Time 2
    12:00,                    !- Time 3
    0.25869768,               !- Value Until Time 3
    17:00,                    !- Time 4
    0.12934884,               !- Value Until Time 4
    19:00,                    !- Time 5
    0.04311628,               !- Value Until Time 5
    24:00,                    !- Time 6
    0.05;                     !- Value Until Time 6

Schedule:Day:Interval,
    MediumOffice Building_Lighting Schedule_SmrDsn,    !- Name
    Fractional,               !- Schedule Type Limits Name
    No,                       !- Interpolate to Timestep
    24:00,                    !- Time 1
    1;                        !- Value Until Time 1

Schedule:Day:Interval,
    MediumOffice Building_Lighting Schedule_WntrDsn,    !- Name
    Fractional,               !- Schedule Type Limits Name
    No,                       !- Interpolate to Timestep
    24:00,                    !- Time 1
    0;                        !- Value Until Time 1

Schedule:Day:Interval,
    MediumOffice Building_People_Act Schedule_Hol,    !- Name
    Activity Level,           !- Schedule Type Limits Name
    No,                       !- Interpolate to Timestep